Circuit: * C:\Users\vkaram\Git\hTron-behavioral-model\test_circuit_pulse.asc

.OP point found by inspection.

Date: Wed Sep 11 04:18:50 2024
Total elapsed time: 0.299 seconds.

tnom = 27
temp = 27
method = modified trap
totiter = 50591
traniter = 50591
tranpoints = 25096
accept = 25086
rejected = 10
matrix size = 20
fillins = 1
solver = Normal
Avg thread counts: 1.0/1.0/1.0/1.0
Matrix Compiler1:      38 opcodes  0.3/[0.1]/0.2
Matrix Compiler2:     105 opcodes  0.2/[0.1]/0.2

