Circuit: * C:\Users\vkaram\Git\hTron-behavioral-model\test_circuit.asc

.OP point found by inspection.
.step i_heater=0
