Circuit: * C:\Users\vkaram\Git\hTron-behavioral-model\test_circuit.asc

WARNING: Less than two connections to node isw.  This node is used by b:x1:3.
.OP point found by inspection.

Date: Mon Jan 22 00:11:37 2024
Total elapsed time: 0.304 seconds.

tnom = 27
temp = 27
method = modified trap
totiter = 50626
traniter = 50626
tranpoints = 25120
accept = 25103
rejected = 17
matrix size = 20
fillins = 1
solver = Normal
Avg thread counts: 1.0/1.0/1.0/1.0
Matrix Compiler1: 678 bytes object code size  0.3/0.2/[0.2]
Matrix Compiler2: 1.20 KB object code size  0.2/0.4/[0.2]

